  
       XFOIL         Version 6.99
  
 Calculated polar for: 000090                                          
  
 1 1 Reynolds number fixed          Mach number fixed         
  
 xtrf =   1.000 (top)        1.000 (bottom)  
 Mach =   0.000     Re =     0.150 e 6     Ncrit =   5.000
  
   alpha    CL        CD       CDp       CM     Top_Xtr  Bot_Xtr
  ------ -------- --------- --------- -------- -------- --------
   1.900   0.8563   0.01624   0.00893  -0.1811   0.7222   0.3872
   3.900   1.0793   0.01692   0.00924  -0.1772   0.5587   0.4832
   3.900   1.0793   0.01692   0.00924  -0.1772   0.5587   0.4832
   2.000   0.8684   0.01621   0.00891  -0.1810   0.7164   0.3915
   4.000   1.0865   0.01705   0.00936  -0.1764   0.5480   0.4873
   4.000   1.0865   0.01705   0.00936  -0.1764   0.5480   0.4873
   0.900   0.7086   0.01732   0.00993  -0.1768   0.7663   0.3389
   1.000   0.7266   0.01712   0.00972  -0.1777   0.7638   0.3446
