  
       XFOIL         Version 6.99
  
 Calculated polar for: 000037                                          
  
 1 1 Reynolds number fixed          Mach number fixed         
  
 xtrf =   1.000 (top)        1.000 (bottom)  
 Mach =   0.000     Re =     0.150 e 6     Ncrit =   5.000
  
   alpha    CL        CD       CDp       CM     Top_Xtr  Bot_Xtr
  ------ -------- --------- --------- -------- -------- --------
   2.900   0.4121   0.02503   0.01650  -0.0336   0.2455   0.9495
   3.000   0.4247   0.02527   0.01660  -0.0340   0.2187   0.9524
