  
       XFOIL         Version 6.99
  
 Calculated polar for: 000069                                          
  
 1 1 Reynolds number fixed          Mach number fixed         
  
 xtrf =   1.000 (top)        1.000 (bottom)  
 Mach =   0.000     Re =     0.150 e 6     Ncrit =   5.000
  
   alpha    CL        CD       CDp       CM     Top_Xtr  Bot_Xtr
  ------ -------- --------- --------- -------- -------- --------
   1.000   0.7327   0.01650   0.00850  -0.1665   0.7612   0.2460
   1.900   0.8405   0.01522   0.00858  -0.1674   0.7297   0.6943
   2.000   0.8509   0.01511   0.00854  -0.1669   0.7261   0.7476
   2.900   0.9285   0.01461   0.00810  -0.1600   0.6881   0.9289
   3.000   0.9424   0.01442   0.00788  -0.1604   0.6836   1.0000
   3.900   1.0537   0.01486   0.00795  -0.1622   0.6380   1.0000
   4.000   1.0622   0.01497   0.00804  -0.1617   0.6322   1.0000
