  
       XFOIL         Version 6.99
  
 Calculated polar for: 000065                                          
  
 1 1 Reynolds number fixed          Mach number fixed         
  
 xtrf =   1.000 (top)        1.000 (bottom)  
 Mach =   0.000     Re =     0.150 e 6     Ncrit =   5.000
  
   alpha    CL        CD       CDp       CM     Top_Xtr  Bot_Xtr
  ------ -------- --------- --------- -------- -------- --------
   0.900   0.4281   0.02852   0.02111  -0.1440   0.8478   0.3291
   1.000   0.4464   0.02820   0.02083  -0.1449   0.8455   0.3357
   3.900   0.8627   0.02072   0.01174  -0.1493   0.3320   0.5090
   4.000   0.8674   0.02110   0.01199  -0.1482   0.3086   0.5136
   3.000   0.6852   0.02374   0.01699  -0.1410   0.7454   0.4481
