  
       XFOIL         Version 6.99
  
 Calculated polar for: 000074                                          
  
 1 1 Reynolds number fixed          Mach number fixed         
  
 xtrf =   1.000 (top)        1.000 (bottom)  
 Mach =   0.000     Re =     0.150 e 6     Ncrit =   5.000
  
   alpha    CL        CD       CDp       CM     Top_Xtr  Bot_Xtr
  ------ -------- --------- --------- -------- -------- --------
   2.900   0.7263   0.01719   0.00914  -0.1420   0.5194   0.4330
   3.900   0.7916   0.02000   0.01073  -0.1330   0.2948   0.4839
   3.000   0.7328   0.01757   0.00924  -0.1410   0.4745   0.4383
   4.000   0.7994   0.02020   0.01089  -0.1324   0.2839   0.4891
