  
       XFOIL         Version 6.99
  
 Calculated polar for: 000024                                          
  
 1 1 Reynolds number fixed          Mach number fixed         
  
 xtrf =   1.000 (top)        1.000 (bottom)  
 Mach =   0.000     Re =     0.150 e 6     Ncrit =   5.000
  
   alpha    CL        CD       CDp       CM     Top_Xtr  Bot_Xtr
  ------ -------- --------- --------- -------- -------- --------
   0.900   0.6349   0.01616   0.00613  -0.1095   0.4585   0.1199
   1.000   0.6451   0.01614   0.00615  -0.1093   0.4540   0.1269
   1.900   0.7273   0.01525   0.00675  -0.1056   0.4201   0.7533
   2.000   0.7326   0.01526   0.00683  -0.1041   0.4168   0.8031
   2.900   0.8009   0.01544   0.00694  -0.0958   0.3876   1.0000
   3.000   0.8112   0.01556   0.00699  -0.0957   0.3847   1.0000
   3.900   0.9046   0.01646   0.00756  -0.0945   0.3561   1.0000
   4.000   0.9146   0.01657   0.00764  -0.0943   0.3531   1.0000
