  
       XFOIL         Version 6.99
  
 Calculated polar for: 000031                                          
  
 1 1 Reynolds number fixed          Mach number fixed         
  
 xtrf =   1.000 (top)        1.000 (bottom)  
 Mach =   0.000     Re =     0.150 e 6     Ncrit =   5.000
  
   alpha    CL        CD       CDp       CM     Top_Xtr  Bot_Xtr
  ------ -------- --------- --------- -------- -------- --------
   0.900   0.4517   0.01633   0.00863  -0.0785   0.5130   1.0000
   1.000   0.4607   0.01638   0.00858  -0.0780   0.5057   1.0000
   1.900   0.5388   0.01689   0.00844  -0.0738   0.4558   1.0000
   2.000   0.5474   0.01695   0.00845  -0.0733   0.4511   1.0000
   2.900   0.6259   0.01756   0.00861  -0.0692   0.4152   1.0000
   3.000   0.6347   0.01764   0.00865  -0.0688   0.4115   1.0000
   3.900   0.7134   0.01837   0.00903  -0.0648   0.3823   1.0000
   4.000   0.7225   0.01844   0.00909  -0.0644   0.3791   1.0000
