  
       XFOIL         Version 6.99
  
 Calculated polar for: 000027                                          
  
 1 1 Reynolds number fixed          Mach number fixed         
  
 xtrf =   1.000 (top)        1.000 (bottom)  
 Mach =   0.000     Re =     0.150 e 6     Ncrit =   5.000
  
   alpha    CL        CD       CDp       CM     Top_Xtr  Bot_Xtr
  ------ -------- --------- --------- -------- -------- --------
   1.900   0.7841   0.02279   0.01252  -0.0747   0.5021   0.2096
   1.900   0.7841   0.02279   0.01252  -0.0747   0.5021   0.2096
   3.900   0.9373   0.02775   0.01884  -0.0587   0.4638   0.8914
   4.000   0.9448   0.02795   0.01899  -0.0580   0.4622   0.8946
   2.000   0.7901   0.02282   0.01254  -0.0737   0.5005   0.2184
   2.000   0.7901   0.02282   0.01254  -0.0737   0.5005   0.2184
