  
       XFOIL         Version 6.99
  
 Calculated polar for: 000016                                          
  
 1 1 Reynolds number fixed          Mach number fixed         
  
 xtrf =   1.000 (top)        1.000 (bottom)  
 Mach =   0.000     Re =     0.150 e 6     Ncrit =   5.000
  
   alpha    CL        CD       CDp       CM     Top_Xtr  Bot_Xtr
  ------ -------- --------- --------- -------- -------- --------
   0.900   0.8881   0.01855   0.00983  -0.2055   0.4524   0.4207
   2.900   1.0849   0.02137   0.01209  -0.1983   0.3621   0.4832
   1.000   0.8978   0.01870   0.00994  -0.2051   0.4463   0.4242
   1.900   0.9853   0.02000   0.01099  -0.2016   0.4016   0.4540
   3.900   1.1805   0.02281   0.01340  -0.1944   0.3292   0.5069
   3.000   1.0942   0.02149   0.01223  -0.1979   0.3584   0.4852
   2.000   0.9961   0.02011   0.01107  -0.2014   0.3969   0.4579
   4.000   1.1894   0.02300   0.01355  -0.1939   0.3265   0.5090
