  
       XFOIL         Version 6.99
  
 Calculated polar for: 000024                                          
  
 1 1 Reynolds number fixed          Mach number fixed         
  
 xtrf =   1.000 (top)        1.000 (bottom)  
 Mach =   0.000     Re =     0.150 e 6     Ncrit =   5.000
  
   alpha    CL        CD       CDp       CM     Top_Xtr  Bot_Xtr
  ------ -------- --------- --------- -------- -------- --------
   3.900   0.5403   0.01887   0.00997  -0.0550   0.4377   0.8145
   3.900   0.5403   0.01887   0.00997  -0.0550   0.4377   0.8145
   4.000   0.5509   0.01894   0.01002  -0.0551   0.4322   0.8158
   4.000   0.5509   0.01894   0.01002  -0.0551   0.4322   0.8158
   0.900   0.1185   0.02452   0.01792  -0.0403   0.8473   0.7855
   3.000   0.4433   0.01826   0.00988  -0.0545   0.5079   0.8047
   1.000   0.1325   0.02434   0.01768  -0.0408   0.8448   0.7864
