  
       XFOIL         Version 6.99
  
 Calculated polar for: 000045                                          
  
 1 1 Reynolds number fixed          Mach number fixed         
  
 xtrf =   1.000 (top)        1.000 (bottom)  
 Mach =   0.000     Re =     0.150 e 6     Ncrit =   5.000
  
   alpha    CL        CD       CDp       CM     Top_Xtr  Bot_Xtr
  ------ -------- --------- --------- -------- -------- --------
   0.900   0.0742   0.02679   0.01779  -0.0451   0.7902   0.3382
   1.000   0.0865   0.02679   0.01779  -0.0454   0.7888   0.3426
   3.000   0.3333   0.02643   0.01792  -0.0511   0.7626   0.4224
   4.000   0.4537   0.02634   0.01822  -0.0536   0.7439   0.4657
