  
       XFOIL         Version 6.99
  
 Calculated polar for: 000060                                          
  
 1 1 Reynolds number fixed          Mach number fixed         
  
 xtrf =   1.000 (top)        1.000 (bottom)  
 Mach =   0.000     Re =     0.150 e 6     Ncrit =   5.000
  
   alpha    CL        CD       CDp       CM     Top_Xtr  Bot_Xtr
  ------ -------- --------- --------- -------- -------- --------
   2.900   0.7683   0.02088   0.01133  -0.1548   0.2342   0.4882
   3.900   0.8627   0.02262   0.01283  -0.1510   0.1818   0.5104
   3.000   0.7778   0.02104   0.01148  -0.1544   0.2275   0.4905
   1.900   0.6843   0.01866   0.00981  -0.1603   0.3574   0.4659
   4.000   0.8727   0.02277   0.01298  -0.1507   0.1777   0.5128
   2.000   0.6911   0.01896   0.01000  -0.1595   0.3365   0.4679
