  
       XFOIL         Version 6.99
  
 Calculated polar for: 000000                                          
  
 1 1 Reynolds number fixed          Mach number fixed         
  
 xtrf =   1.000 (top)        1.000 (bottom)  
 Mach =   0.000     Re =     0.150 e 6     Ncrit =   5.000
  
   alpha    CL        CD       CDp       CM     Top_Xtr  Bot_Xtr
  ------ -------- --------- --------- -------- -------- --------
   0.900   0.3436   0.02792   0.01900  -0.1140   0.7579   0.1878
   1.000   0.3646   0.02753   0.01863  -0.1156   0.7595   0.1985
   2.000   0.4452   0.02776   0.01936  -0.1110   0.7421   0.3209
