  
       XFOIL         Version 6.99
  
 Calculated polar for: 000054                                          
  
 1 1 Reynolds number fixed          Mach number fixed         
  
 xtrf =   1.000 (top)        1.000 (bottom)  
 Mach =   0.000     Re =     0.150 e 6     Ncrit =   5.000
  
   alpha    CL        CD       CDp       CM     Top_Xtr  Bot_Xtr
  ------ -------- --------- --------- -------- -------- --------
   0.900   0.0862   0.02122   0.01299  -0.0133   0.8147   0.3136
   1.000   0.0944   0.02111   0.01293  -0.0127   0.8087   0.3229
   1.900   0.4787   0.01648   0.00953  -0.0657   0.5920   0.9440
   2.000   0.4904   0.01673   0.00948  -0.0654   0.5537   0.9568
   2.900   0.6597   0.01883   0.01036  -0.0801   0.3917   1.0000
   4.000   0.7447   0.02004   0.01104  -0.0723   0.3214   1.0000
