  
       XFOIL         Version 6.99
  
 Calculated polar for: 000092                                          
  
 1 1 Reynolds number fixed          Mach number fixed         
  
 xtrf =   1.000 (top)        1.000 (bottom)  
 Mach =   0.000     Re =     0.150 e 6     Ncrit =   5.000
  
   alpha    CL        CD       CDp       CM     Top_Xtr  Bot_Xtr
  ------ -------- --------- --------- -------- -------- --------
   0.900   0.6869   0.01632   0.00904  -0.1706   0.7721   0.3524
   1.900   0.8385   0.01535   0.00807  -0.1756   0.7158   0.4028
   1.000   0.7009   0.01622   0.00894  -0.1709   0.7674   0.3572
   3.900   1.0501   0.01667   0.00879  -0.1696   0.5110   0.4972
   3.900   1.0501   0.01667   0.00879  -0.1696   0.5110   0.4972
   2.000   0.8504   0.01534   0.00808  -0.1755   0.7080   0.4068
   4.000   1.0567   0.01685   0.00890  -0.1686   0.4985   0.5020
   4.000   1.0567   0.01685   0.00890  -0.1686   0.4985   0.5020
