  
       XFOIL         Version 6.99
  
 Calculated polar for: 000015                                          
  
 1 1 Reynolds number fixed          Mach number fixed         
  
 xtrf =   1.000 (top)        1.000 (bottom)  
 Mach =   0.000     Re =     0.150 e 6     Ncrit =   5.000
  
   alpha    CL        CD       CDp       CM     Top_Xtr  Bot_Xtr
  ------ -------- --------- --------- -------- -------- --------
   1.900   0.4943   0.01602   0.00912  -0.0586   0.6210   0.9326
   2.000   0.4995   0.01623   0.00927  -0.0572   0.6087   0.9389
   2.900   0.6228   0.01761   0.00991  -0.0612   0.4893   0.9679
   3.000   0.6354   0.01775   0.00997  -0.0615   0.4777   0.9709
   3.900   0.7507   0.01854   0.01022  -0.0651   0.3825   0.9946
   4.000   0.7656   0.01858   0.01022  -0.0660   0.3720   0.9971
