  
       XFOIL         Version 6.99
  
 Calculated polar for: 000003                                          
  
 1 1 Reynolds number fixed          Mach number fixed         
  
 xtrf =   1.000 (top)        1.000 (bottom)  
 Mach =   0.000     Re =     0.150 e 6     Ncrit =   5.000
  
   alpha    CL        CD       CDp       CM     Top_Xtr  Bot_Xtr
  ------ -------- --------- --------- -------- -------- --------
   0.900   0.2403   0.01745   0.00718  -0.0326   0.5124   0.1572
   1.000   0.2532   0.01747   0.00716  -0.0330   0.5055   0.1624
   1.900   0.3630   0.01751   0.00715  -0.0348   0.4584   0.2148
   2.000   0.3743   0.01750   0.00717  -0.0348   0.4538   0.2222
   2.900   0.6119   0.01825   0.00958  -0.0636   0.4059   0.9399
   3.000   0.6292   0.01858   0.00985  -0.0647   0.4023   0.9516
   3.900   0.8349   0.01974   0.01058  -0.0869   0.3640   1.0000
   4.000   0.8437   0.01980   0.01065  -0.0864   0.3611   1.0000
