  
       XFOIL         Version 6.99
  
 Calculated polar for: 000083                                          
  
 1 1 Reynolds number fixed          Mach number fixed         
  
 xtrf =   1.000 (top)        1.000 (bottom)  
 Mach =   0.000     Re =     0.150 e 6     Ncrit =   5.000
  
   alpha    CL        CD       CDp       CM     Top_Xtr  Bot_Xtr
  ------ -------- --------- --------- -------- -------- --------
   0.900   0.6202   0.01561   0.00790  -0.1496   0.7411   0.2964
   1.900   0.7666   0.01513   0.00728  -0.1540   0.6672   0.3437
   3.900   0.9533   0.01676   0.00839  -0.1439   0.4866   0.4425
   2.900   0.8751   0.01566   0.00754  -0.1516   0.5783   0.3911
   4.000   0.9602   0.01689   0.00850  -0.1430   0.4778   0.4476
   1.000   0.6317   0.01558   0.00787  -0.1495   0.7345   0.3006
   3.000   0.8833   0.01575   0.00761  -0.1509   0.5690   0.3960
   2.000   0.7817   0.01512   0.00724  -0.1545   0.6589   0.3485
