  
       XFOIL         Version 6.99
  
 Calculated polar for: 000121                                          
  
 1 1 Reynolds number fixed          Mach number fixed         
  
 xtrf =   1.000 (top)        1.000 (bottom)  
 Mach =   0.000     Re =     0.150 e 6     Ncrit =   5.000
  
   alpha    CL        CD       CDp       CM     Top_Xtr  Bot_Xtr
  ------ -------- --------- --------- -------- -------- --------
   3.900   1.0885   0.01721   0.00937  -0.1804   0.5281   0.4842
   2.900   0.9959   0.01605   0.00861  -0.1856   0.6359   0.4354
   1.900   0.8592   0.01621   0.00894  -0.1831   0.7210   0.3841
   4.000   1.0957   0.01738   0.00949  -0.1796   0.5173   0.4886
   3.000   1.0071   0.01612   0.00862  -0.1854   0.6255   0.4409
   2.000   0.8694   0.01622   0.00898  -0.1827   0.7136   0.3881
