  
       XFOIL         Version 6.99
  
 Calculated polar for: 000101                                          
  
 1 1 Reynolds number fixed          Mach number fixed         
  
 xtrf =   1.000 (top)        1.000 (bottom)  
 Mach =   0.000     Re =     0.150 e 6     Ncrit =   5.000
  
   alpha    CL        CD       CDp       CM     Top_Xtr  Bot_Xtr
  ------ -------- --------- --------- -------- -------- --------
   1.000  -0.0391   0.03752   0.02832  -0.0209   0.8021   0.1853
   1.900   0.2716   0.04302   0.03615  -0.0715   0.8053   1.0000
   2.000   0.2817   0.04308   0.03618  -0.0714   0.8046   1.0000
   2.900   0.3568   0.04403   0.03692  -0.0682   0.7958   1.0000
   3.000   0.3586   0.04423   0.03712  -0.0668   0.7933   1.0000
   3.900   0.4771   0.04282   0.03552  -0.0699   0.7806   1.0000
