  
       XFOIL         Version 6.99
  
 Calculated polar for: 000192                                          
  
 1 1 Reynolds number fixed          Mach number fixed         
  
 xtrf =   1.000 (top)        1.000 (bottom)  
 Mach =   0.000     Re =     0.150 e 6     Ncrit =   5.000
  
   alpha    CL        CD       CDp       CM     Top_Xtr  Bot_Xtr
  ------ -------- --------- --------- -------- -------- --------
   0.900   0.4458   0.01393   0.00534  -0.0821   0.6858   0.2583
   1.000   0.4567   0.01389   0.00530  -0.0819   0.6829   0.2680
   1.900   0.5499   0.01359   0.00537  -0.0795   0.6510   0.3779
   2.000   0.5602   0.01355   0.00540  -0.0792   0.6473   0.3948
   2.900   0.7336   0.01244   0.00554  -0.0935   0.6079   1.0000
   3.000   0.7437   0.01249   0.00554  -0.0931   0.6038   1.0000
   3.900   0.8318   0.01306   0.00588  -0.0896   0.5622   1.0000
   4.000   0.8413   0.01313   0.00594  -0.0892   0.5573   1.0000
