  
       XFOIL         Version 6.99
  
 Calculated polar for: 000141                                          
  
 1 1 Reynolds number fixed          Mach number fixed         
  
 xtrf =   1.000 (top)        1.000 (bottom)  
 Mach =   0.000     Re =     0.150 e 6     Ncrit =   5.000
  
   alpha    CL        CD       CDp       CM     Top_Xtr  Bot_Xtr
  ------ -------- --------- --------- -------- -------- --------
   3.000   0.9147   0.02198   0.01443  -0.1708   0.7146   0.2730
   3.900   1.0474   0.02012   0.01261  -0.1741   0.6630   0.3391
   4.000   1.0626   0.01997   0.01243  -0.1746   0.6548   0.3477
