  
       XFOIL         Version 6.99
  
 Calculated polar for: 000166                                          
  
 1 1 Reynolds number fixed          Mach number fixed         
  
 xtrf =   1.000 (top)        1.000 (bottom)  
 Mach =   0.000     Re =     0.150 e 6     Ncrit =   5.000
  
   alpha    CL        CD       CDp       CM     Top_Xtr  Bot_Xtr
  ------ -------- --------- --------- -------- -------- --------
   1.000   0.3923   0.02027   0.01370  -0.0978   0.7599   0.5621
   2.000   0.6503   0.01591   0.00768  -0.1206   0.4547   0.8108
   2.900   0.7491   0.01650   0.00784  -0.1203   0.4022   1.0000
   3.000   0.7597   0.01659   0.00790  -0.1202   0.3972   1.0000
   3.900   0.8528   0.01762   0.00857  -0.1188   0.3590   1.0000
   4.000   0.8630   0.01773   0.00866  -0.1186   0.3549   1.0000
