  
       XFOIL         Version 6.99
  
 Calculated polar for: 000175                                          
  
 1 1 Reynolds number fixed          Mach number fixed         
  
 xtrf =   1.000 (top)        1.000 (bottom)  
 Mach =   0.000     Re =     0.150 e 6     Ncrit =   5.000
  
   alpha    CL        CD       CDp       CM     Top_Xtr  Bot_Xtr
  ------ -------- --------- --------- -------- -------- --------
   0.900   0.4919   0.01491   0.00541  -0.0704   0.5223   0.2323
   1.000   0.5025   0.01491   0.00542  -0.0702   0.5196   0.2379
   1.900   0.5971   0.01489   0.00560  -0.0679   0.4922   0.2998
   2.900   0.7013   0.01487   0.00586  -0.0653   0.4621   0.4251
   3.000   0.7118   0.01482   0.00594  -0.0651   0.4587   0.4515
   3.900   0.8458   0.01439   0.00634  -0.0710   0.4251   1.0000
   4.000   0.8553   0.01448   0.00638  -0.0706   0.4221   1.0000
