  
       XFOIL         Version 6.99
  
 Calculated polar for: 000108                                          
  
 1 1 Reynolds number fixed          Mach number fixed         
  
 xtrf =   1.000 (top)        1.000 (bottom)  
 Mach =   0.000     Re =     0.150 e 6     Ncrit =   5.000
  
   alpha    CL        CD       CDp       CM     Top_Xtr  Bot_Xtr
  ------ -------- --------- --------- -------- -------- --------
   0.900   0.2517   0.02800   0.02101  -0.0864   0.7809   0.6462
   1.000   0.2675   0.02782   0.02084  -0.0870   0.7802   0.6492
   1.900   0.3407   0.02780   0.02081  -0.0821   0.7539   0.6722
   2.000   0.3476   0.02784   0.02086  -0.0814   0.7501   0.6749
   2.900   0.4426   0.02711   0.02014  -0.0797   0.7259   0.6962
   3.000   0.4563   0.02691   0.01993  -0.0800   0.7239   0.6989
