  
       XFOIL         Version 6.99
  
 Calculated polar for: 000109                                          
  
 1 1 Reynolds number fixed          Mach number fixed         
  
 xtrf =   1.000 (top)        1.000 (bottom)  
 Mach =   0.000     Re =     0.150 e 6     Ncrit =   5.000
  
   alpha    CL        CD       CDp       CM     Top_Xtr  Bot_Xtr
  ------ -------- --------- --------- -------- -------- --------
   0.900   0.7068   0.01747   0.01017  -0.1774   0.7683   0.3354
   1.000   0.7238   0.01727   0.00997  -0.1782   0.7650   0.3409
   2.900   0.9988   0.01604   0.00858  -0.1854   0.6326   0.4394
   3.900   1.0903   0.01723   0.00937  -0.1801   0.5231   0.4875
   3.000   1.0111   0.01609   0.00859  -0.1854   0.6221   0.4444
   4.000   1.0973   0.01739   0.00950  -0.1792   0.5119   0.4923
   2.000   0.8737   0.01616   0.00893  -0.1828   0.7113   0.3914
