  
       XFOIL         Version 6.99
  
 Calculated polar for: 000110                                          
  
 1 1 Reynolds number fixed          Mach number fixed         
  
 xtrf =   1.000 (top)        1.000 (bottom)  
 Mach =   0.000     Re =     0.150 e 6     Ncrit =   5.000
  
   alpha    CL        CD       CDp       CM     Top_Xtr  Bot_Xtr
  ------ -------- --------- --------- -------- -------- --------
   1.900   0.8344   0.01648   0.00924  -0.1787   0.7248   0.3796
   2.900   0.9791   0.01605   0.00863  -0.1825   0.6415   0.4310
   3.900   1.0729   0.01716   0.00932  -0.1775   0.5286   0.4798
   2.900   0.9791   0.01605   0.00863  -0.1825   0.6415   0.4310
   2.000   0.8547   0.01628   0.00902  -0.1801   0.7192   0.3855
   3.000   0.9893   0.01612   0.00868  -0.1822   0.6311   0.4361
   4.000   1.0800   0.01734   0.00945  -0.1766   0.5169   0.4841
   3.000   0.9893   0.01612   0.00868  -0.1822   0.6311   0.4361
