  
       XFOIL         Version 6.99
  
 Calculated polar for: 000138                                          
  
 1 1 Reynolds number fixed          Mach number fixed         
  
 xtrf =   1.000 (top)        1.000 (bottom)  
 Mach =   0.000     Re =     0.150 e 6     Ncrit =   5.000
  
   alpha    CL        CD       CDp       CM     Top_Xtr  Bot_Xtr
  ------ -------- --------- --------- -------- -------- --------
   0.900   0.5966   0.02434   0.01727  -0.1597   0.7853   0.6454
   1.000   0.6078   0.02432   0.01730  -0.1596   0.7846   0.6671
   2.000   0.6812   0.02522   0.01853  -0.1527   0.7684   0.8338
   2.900   0.7871   0.02471   0.01812  -0.1533   0.7617   1.0000
   3.000   0.8009   0.02466   0.01807  -0.1538   0.7612   1.0000
