  
       XFOIL         Version 6.99
  
 Calculated polar for: 000104                                          
  
 1 1 Reynolds number fixed          Mach number fixed         
  
 xtrf =   1.000 (top)        1.000 (bottom)  
 Mach =   0.000     Re =     0.150 e 6     Ncrit =   5.000
  
   alpha    CL        CD       CDp       CM     Top_Xtr  Bot_Xtr
  ------ -------- --------- --------- -------- -------- --------
   1.900   0.8425   0.01682   0.00959  -0.1809   0.7303   0.3809
   2.900   0.9887   0.01620   0.00886  -0.1849   0.6576   0.4338
   1.900   0.8425   0.01682   0.00959  -0.1809   0.7303   0.3809
   2.000   0.8597   0.01666   0.00943  -0.1817   0.7249   0.3862
   3.000   0.9995   0.01625   0.00888  -0.1847   0.6479   0.4392
   3.900   1.0902   0.01706   0.00938  -0.1813   0.5525   0.4843
   2.000   0.8597   0.01666   0.00943  -0.1817   0.7249   0.3862
   4.000   1.0981   0.01722   0.00948  -0.1805   0.5414   0.4889
