  
       XFOIL         Version 6.99
  
 Calculated polar for: 000177                                          
  
 1 1 Reynolds number fixed          Mach number fixed         
  
 xtrf =   1.000 (top)        1.000 (bottom)  
 Mach =   0.000     Re =     0.150 e 6     Ncrit =   5.000
  
   alpha    CL        CD       CDp       CM     Top_Xtr  Bot_Xtr
  ------ -------- --------- --------- -------- -------- --------
   0.900   0.4014   0.01479   0.00675  -0.0784   0.6820   0.4823
   1.000   0.4116   0.01465   0.00673  -0.0782   0.6808   0.5133
   1.900   0.4959   0.01424   0.00746  -0.0729   0.6632   0.8538
   2.000   0.5093   0.01424   0.00746  -0.0731   0.6618   0.8697
   2.900   0.6389   0.01462   0.00787  -0.0778   0.6434   0.9528
   3.000   0.6535   0.01463   0.00786  -0.0783   0.6419   0.9592
   3.900   0.8184   0.01487   0.00810  -0.0910   0.6210   1.0000
   4.000   0.8241   0.01494   0.00817  -0.0900   0.6184   1.0000
