  
       XFOIL         Version 6.99
  
 Calculated polar for: 000128                                          
  
 1 1 Reynolds number fixed          Mach number fixed         
  
 xtrf =   1.000 (top)        1.000 (bottom)  
 Mach =   0.000     Re =     0.150 e 6     Ncrit =   5.000
  
   alpha    CL        CD       CDp       CM     Top_Xtr  Bot_Xtr
  ------ -------- --------- --------- -------- -------- --------
   0.900   0.3989   0.01534   0.00716  -0.1002   0.7648   0.3322
   1.000   0.4167   0.01518   0.00702  -0.1013   0.7625   0.3379
   1.900   0.5366   0.01463   0.00656  -0.1037   0.7264   0.3844
   2.000   0.5543   0.01452   0.00648  -0.1048   0.7227   0.3899
   2.900   0.6699   0.01436   0.00635  -0.1065   0.6775   0.4406
   3.000   0.6782   0.01439   0.00641  -0.1058   0.6716   0.4454
   4.000   0.7830   0.01468   0.00677  -0.1032   0.6143   0.5068
