  
       XFOIL         Version 6.99
  
 Calculated polar for: 000162                                          
  
 1 1 Reynolds number fixed          Mach number fixed         
  
 xtrf =   1.000 (top)        1.000 (bottom)  
 Mach =   0.000     Re =     0.150 e 6     Ncrit =   5.000
  
   alpha    CL        CD       CDp       CM     Top_Xtr  Bot_Xtr
  ------ -------- --------- --------- -------- -------- --------
   0.900   0.5732   0.01612   0.00733  -0.1299   0.7289   0.2102
   1.000   0.5844   0.01609   0.00729  -0.1299   0.7270   0.2160
   1.900   0.6737   0.01595   0.00741  -0.1271   0.7083   0.2751
   2.000   0.6851   0.01592   0.00741  -0.1270   0.7064   0.2838
   2.900   0.7731   0.01587   0.00767  -0.1240   0.6866   0.3724
   3.000   0.7864   0.01584   0.00767  -0.1244   0.6846   0.3862
