  
       XFOIL         Version 6.99
  
 Calculated polar for: 000261                                          
  
 1 1 Reynolds number fixed          Mach number fixed         
  
 xtrf =   1.000 (top)        1.000 (bottom)  
 Mach =   0.000     Re =     0.150 e 6     Ncrit =   5.000
  
   alpha    CL        CD       CDp       CM     Top_Xtr  Bot_Xtr
  ------ -------- --------- --------- -------- -------- --------
   0.900   0.2130   0.02532   0.01797  -0.0883   0.8412   0.4860
   1.000   0.2311   0.02511   0.01781  -0.0893   0.8402   0.4982
   4.000   0.6253   0.01767   0.01044  -0.0899   0.5474   0.7339
