  
       XFOIL         Version 6.99
  
 Calculated polar for: 000274                                          
  
 1 1 Reynolds number fixed          Mach number fixed         
  
 xtrf =   1.000 (top)        1.000 (bottom)  
 Mach =   0.000     Re =     0.150 e 6     Ncrit =   5.000
  
   alpha    CL        CD       CDp       CM     Top_Xtr  Bot_Xtr
  ------ -------- --------- --------- -------- -------- --------
   1.900   0.5927   0.01958   0.01273  -0.1202   0.7857   0.5698
   2.000   0.6067   0.01933   0.01249  -0.1203   0.7832   0.5771
   3.900   0.8710   0.01653   0.00833  -0.1232   0.4378   0.7006
   4.000   0.8753   0.01680   0.00850  -0.1220   0.4186   0.7065
