  
       XFOIL         Version 6.99
  
 Calculated polar for: 000278                                          
  
 1 1 Reynolds number fixed          Mach number fixed         
  
 xtrf =   1.000 (top)        1.000 (bottom)  
 Mach =   0.000     Re =     0.150 e 6     Ncrit =   5.000
  
   alpha    CL        CD       CDp       CM     Top_Xtr  Bot_Xtr
  ------ -------- --------- --------- -------- -------- --------
   1.000  -0.0965   0.02768   0.01892  -0.0008   0.8622   0.3617
   1.900   0.1805   0.02891   0.02241  -0.0381   0.8518   0.9306
   2.000   0.1817   0.02896   0.02244  -0.0358   0.8490   0.9398
   3.000   0.4041   0.02996   0.02357  -0.0586   0.8336   0.9967
