  
       XFOIL         Version 6.99
  
 Calculated polar for: 000242                                          
  
 1 1 Reynolds number fixed          Mach number fixed         
  
 xtrf =   1.000 (top)        1.000 (bottom)  
 Mach =   0.000     Re =     0.150 e 6     Ncrit =   5.000
  
   alpha    CL        CD       CDp       CM     Top_Xtr  Bot_Xtr
  ------ -------- --------- --------- -------- -------- --------
   1.000   0.1161   0.02092   0.01181  -0.0017   0.7421   0.0653
   1.900   0.5687   0.01827   0.01122  -0.0716   0.6573   0.9930
   2.900   0.7210   0.01796   0.00977  -0.0807   0.5376   0.9994
   3.000   0.7317   0.01804   0.00978  -0.0808   0.5294   1.0000
   3.900   0.7843   0.01859   0.00992  -0.0724   0.4782   1.0000
   4.000   0.7899   0.01865   0.00996  -0.0714   0.4731   1.0000
