  
       XFOIL         Version 6.99
  
 Calculated polar for: 000286                                          
  
 1 1 Reynolds number fixed          Mach number fixed         
  
 xtrf =   1.000 (top)        1.000 (bottom)  
 Mach =   0.000     Re =     0.150 e 6     Ncrit =   5.000
  
   alpha    CL        CD       CDp       CM     Top_Xtr  Bot_Xtr
  ------ -------- --------- --------- -------- -------- --------
   2.000   0.5256   0.01995   0.01396  -0.0885   0.7410   0.9280
   2.900   0.6315   0.01886   0.01258  -0.0888   0.6713   1.0000
   3.000   0.6548   0.01824   0.01186  -0.0904   0.6598   1.0000
   3.900   0.8147   0.01675   0.00876  -0.0989   0.4717   1.0000
   4.000   0.8222   0.01697   0.00887  -0.0984   0.4608   1.0000
