  
       XFOIL         Version 6.99
  
 Calculated polar for: 000241                                          
  
 1 1 Reynolds number fixed          Mach number fixed         
  
 xtrf =   1.000 (top)        1.000 (bottom)  
 Mach =   0.000     Re =     0.150 e 6     Ncrit =   5.000
  
   alpha    CL        CD       CDp       CM     Top_Xtr  Bot_Xtr
  ------ -------- --------- --------- -------- -------- --------
   0.900   0.4961   0.01296   0.00548  -0.0931   0.6026   0.6820
   1.000   0.5051   0.01299   0.00551  -0.0925   0.5966   0.6962
   1.900   0.5831   0.01333   0.00579  -0.0864   0.5447   0.8078
   2.000   0.5919   0.01338   0.00582  -0.0858   0.5397   0.8207
   2.900   0.7113   0.01389   0.00626  -0.0885   0.4906   0.9871
   3.000   0.7240   0.01400   0.00632  -0.0889   0.4855   1.0000
   3.900   0.7971   0.01479   0.00673  -0.0836   0.4470   1.0000
   4.000   0.8053   0.01490   0.00679  -0.0831   0.4432   1.0000
