  
       XFOIL         Version 6.99
  
 Calculated polar for: 000210                                          
  
 1 1 Reynolds number fixed          Mach number fixed         
  
 xtrf =   1.000 (top)        1.000 (bottom)  
 Mach =   0.000     Re =     0.150 e 6     Ncrit =   5.000
  
   alpha    CL        CD       CDp       CM     Top_Xtr  Bot_Xtr
  ------ -------- --------- --------- -------- -------- --------
   0.900   0.3501   0.02627   0.01794  -0.1242   0.8039   0.2543
   1.000   0.3628   0.02624   0.01796  -0.1244   0.8033   0.2593
   2.900   0.5504   0.02672   0.01930  -0.1202   0.7719   0.3956
   3.000   0.5613   0.02660   0.01924  -0.1200   0.7693   0.4082
   4.000   0.6939   0.02308   0.01685  -0.1196   0.7428   0.6916
