  
       XFOIL         Version 6.99
  
 Calculated polar for: 000310                                          
  
 1 1 Reynolds number fixed          Mach number fixed         
  
 xtrf =   1.000 (top)        1.000 (bottom)  
 Mach =   0.000     Re =     0.150 e 6     Ncrit =   5.000
  
   alpha    CL        CD       CDp       CM     Top_Xtr  Bot_Xtr
  ------ -------- --------- --------- -------- -------- --------
   0.900   0.4546   0.01633   0.00626  -0.0723   0.5835   0.1651
   1.000   0.4691   0.01633   0.00625  -0.0730   0.5803   0.1694
   1.900   0.5722   0.01636   0.00640  -0.0734   0.5508   0.2171
   2.000   0.5872   0.01637   0.00646  -0.0743   0.5476   0.2241
   3.000   0.7157   0.01664   0.00703  -0.0778   0.5182   0.3416
   3.900   0.9364   0.01863   0.01018  -0.1020   0.4860   0.9788
   4.000   0.9727   0.01856   0.01005  -0.1075   0.4822   0.9846
