  
       XFOIL         Version 6.99
  
 Calculated polar for: 000304                                          
  
 1 1 Reynolds number fixed          Mach number fixed         
  
 xtrf =   1.000 (top)        1.000 (bottom)  
 Mach =   0.000     Re =     0.150 e 6     Ncrit =   5.000
  
   alpha    CL        CD       CDp       CM     Top_Xtr  Bot_Xtr
  ------ -------- --------- --------- -------- -------- --------
   0.900   0.3692   0.01331   0.00468  -0.0563   0.5454   0.3548
   1.000   0.3771   0.01347   0.00472  -0.0555   0.5200   0.3677
   1.900   0.4641   0.01426   0.00525  -0.0521   0.3935   0.5207
   2.900   0.7213   0.01557   0.00673  -0.0828   0.2916   1.0000
   3.000   0.7299   0.01569   0.00680  -0.0822   0.2872   1.0000
   3.900   0.8078   0.01673   0.00751  -0.0769   0.2490   1.0000
   4.000   0.8166   0.01684   0.00760  -0.0763   0.2450   1.0000
