  
       XFOIL         Version 6.99
  
 Calculated polar for: result                                          
  
 1 1 Reynolds number fixed          Mach number fixed         
  
 xtrf =   1.000 (top)        1.000 (bottom)  
 Mach =   0.000     Re =     0.150 e 6     Ncrit =   5.000
  
   alpha    CL        CD       CDp       CM     Top_Xtr  Bot_Xtr
  ------ -------- --------- --------- -------- -------- --------
   0.900   1.0666   0.01530   0.00766  -0.2389   0.7662   0.3643
   2.900   1.3051   0.01484   0.00764  -0.2412   0.6882   1.0000
   3.000   1.3173   0.01490   0.00765  -0.2414   0.6839   1.0000
   1.000   1.0834   0.01519   0.00757  -0.2399   0.7636   0.3824
   3.900   1.4096   0.01575   0.00826  -0.2397   0.6440   1.0000
   2.000   1.2094   0.01499   0.00749  -0.2425   0.7263   0.5628
   4.000   1.4216   0.01584   0.00830  -0.2399   0.6400   1.0000
